
     RDKit          3D

 20 20  0  0  0  0  0  0  0  0999 V2000
   -4.9400   -1.9289    1.3128 C   0  0  0  0  0  0  0  0  0  0  0  0
   -4.4761   -0.6872    0.7991 O   0  0  0  0  0  0  0  0  0  0  0  0
   -3.4423   -0.6986   -0.2313 C   0  0  2  0  0  0  0  0  0  0  0  0
   -3.9568   -1.4330   -1.4671 C   0  0  0  0  0  0  0  0  0  0  0  0
   -2.0297   -1.1423    0.2473 C   0  0  0  0  0  0  0  0  0  0  0  0
   -1.7401    0.3334    0.6280 C   0  0  1  0  0  0  0  0  0  0  0  0
   -0.3372    0.8372    0.4429 N   0  0  0  0  0  0  0  0  0  0  0  0
   -0.1589    2.2865    0.4959 C   0  0  0  0  0  0  0  0  0  0  0  0
    0.7561   -0.0117    0.6030 C   0  0  0  0  0  0  0  0  0  0  0  0
    0.6721   -1.1845    0.9567 O   0  0  0  0  0  0  0  0  0  0  0  0
    1.9711    0.5657    0.3404 N   0  0  0  0  0  0  0  0  0  0  0  0
    3.1838   -0.2294    0.3953 C   0  0  0  0  0  0  0  0  0  0  0  0
    4.3776    0.5880   -0.1139 C   0  0  0  0  0  0  0  0  0  0  0  0
    4.1995    1.6969   -0.6291 O   0  0  0  0  0  0  0  0  0  0  0  0
    5.6410    0.0132    0.0017 N   0  0  0  0  0  0  0  0  0  0  0  0
    5.9045   -1.2164    0.7338 C   0  0  0  0  0  0  0  0  0  0  0  0
    6.8029    0.8136   -0.3482 C   0  0  0  0  0  0  0  0  0  0  0  0
   -2.7873    0.7387   -0.4846 C   0  0  0  0  0  0  0  0  0  0  0  0
   -2.2163    0.9830   -1.8896 C   0  0  0  0  0  0  0  0  0  0  0  0
   -3.7051    1.9019   -0.0929 C   0  0  0  0  0  0  0  0  0  0  0  0
  1  2  1  0
  2  3  1  0
  3  4  1  6
  3  5  1  0
  5  6  1  0
  6  7  1  6
  7  8  1  0
  7  9  1  0
  9 10  2  0
  9 11  1  0
 11 12  1  0
 12 13  1  0
 13 14  2  0
 13 15  1  0
 15 16  1  0
 15 17  1  0
  6 18  1  0
 18 19  1  0
 18 20  1  0
 18  3  1  0
M  END
